2015CitenelArticle/DVLU05.m
function mpc = DVLU05

%% MATPOWER Case Format : Version 2
mpc.version = '2';

%%-----  Power Flow Data  -----%%
%% system MVA base
mpc.baseMVA = 1;

%% bus data
%	bus_i	type	Pd	Qd	Gs	Bs	area	Vm	Va	baseKV	zone	Vmax	Vmin
mpc.bus = [
	100347669	3	0	0	0	0	0	1	0	13.8	0	1.1	0.9;
	100347676	1	0	0	0	0	0	1	0	13.8	0	1.1	0.9;
	100347697	1	0	0	0	0	0	1	0	13.8	0	1.1	0.9;
	100347704	1	0	0	0	0	0	1	0	13.8	0	1.1	0.9;
	100347711	1	0	0	0	0	0	1	0	13.8	0	1.1	0.9;
	100347718	1	0	0	0	0	0	1	0	13.8	0	1.1	0.9;
	100347725	1	0	0	0	0	0	1	0	13.8	0	1.1	0.9;
	100347732	1	0.0483474531	0.00832111387	0	0	0	1	0	13.8	0	1.1	0.9;
	100347739	1	0	0	0	0	0	1	0	13.8	0	1.1	0.9;
	100347746	1	0	0	0	0	0	1	0	13.8	0	1.1	0.9;
	100347753	1	0	0	0	0	0	1	0	13.8	0	1.1	0.9;
	100347760	1	0.0252219746	0.00193900608	0	0	0	1	0	13.8	0	1.1	0.9;
	100347767	1	0	0	0	0	0	1	0	13.8	0	1.1	0.9;
	100347774	1	0	0	0	0	0	1	0	13.8	0	1.1	0.9;
	100347781	1	0	0	0	0	0	1	0	13.8	0	1.1	0.9;
	100347788	1	0.042644331	0.0123053356	0	0	0	1	0	13.8	0	1.1	0.9;
	100347795	1	0.0641374365	0.0190074339	0	0	0	1	0	13.8	0	1.1	0.9;
	100347802	1	0	0	0	0	0	1	0	13.8	0	1.1	0.9;
	100347809	1	0	0	0	0	0	1	0	13.8	0	1.1	0.9;
	100347816	1	0	0	0	0	0	1	0	13.8	0	1.1	0.9;
	100347823	1	0	0	0	0	0	1	0	13.8	0	1.1	0.9;
	100347830	1	0	0	0	0	0	1	0	13.8	0	1.1	0.9;
	100347837	1	0	0	0	0	0	1	0	13.8	0	1.1	0.9;
	100347844	1	0	0	0	0	0	1	0	13.8	0	1.1	0.9;
	100347851	1	0.0650469157	0.0152111214	0	0	0	1	0	13.8	0	1.1	0.9;
	100347879	1	0	0	0	0	0	1	0	13.8	0	1.1	0.9;
	100347886	1	0	0	0	0	0	1	0	13.8	0	1.1	0.9;
	100347893	1	0.0332435907	0.00772606776	0	0	0	1	0	13.8	0	1.1	0.9;
	100347900	1	0	0	0	0	0	1	0	13.8	0	1.1	0.9;
	100347907	1	0	0	0	0	0	1	0	13.8	0	1.1	0.9;
	100347914	1	0	0	0	0	0	1	0	13.8	0	1.1	0.9;
	100347921	1	0	0	0	0	0	1	0	13.8	0	1.1	0.9;
	100347928	1	0	0	0	0	0	1	0	13.8	0	1.1	0.9;
	100347935	1	0	0	0	0	0	1	0	13.8	0	1.1	0.9;
	100347942	1	0	0	0	0	0	1	0	13.8	0	1.1	0.9;
	100347949	1	0.0120438682	0.00191041119	0	0	0	1	0	13.8	0	1.1	0.9;
	100347956	1	0	0	0	0	0	1	0	13.8	0	1.1	0.9;
	100347963	1	0.084269024	0.000215142528	0	0	0	1	0	13.8	0	1.1	0.9;
	100347970	1	0.0333878813	0.000356755332	0	0	0	1	0	13.8	0	1.1	0.9;
	100347991	1	0	0	0	0	0	1	0	13.8	0	1.1	0.9;
	100347998	1	0	0	0	0	0	1	0	13.8	0	1.1	0.9;
	100348047	1	0	0	0	0	0	1	0	13.8	0	1.1	0.9;
	100348054	1	0	0	0	0	0	1	0	13.8	0	1.1	0.9;
	100348061	1	0	0	0	0	0	1	0	13.8	0	1.1	0.9;
	100348068	1	0	0	0	0	0	1	0	13.8	0	1.1	0.9;
	100348075	1	0	0	0	0	0	1	0	13.8	0	1.1	0.9;
	100348082	1	0.0457655867	0.00995919274	0	0	0	1	0	13.8	0	1.1	0.9;
	100348089	1	0.0747992995	0.0219949194	0	0	0	1	0	13.8	0	1.1	0.9;
	100348096	1	0	0	0	0	0	1	0	13.8	0	1.1	0.9;
	100348103	1	0	0	0	0	0	1	0	13.8	0	1.1	0.9;
	100348110	1	0.229367403	0.0608540173	0	0	0	1	0	13.8	0	1.1	0.9;
	100348117	1	0	0	0	0	0	1	0	13.8	0	1.1	0.9;
	100348124	1	0	0	0	0	0	1	0	13.8	0	1.1	0.9;
	100348131	1	0.0494952961	0.0102042918	0	0	0	1	0	13.8	0	1.1	0.9;
	100348138	1	0	0	0	0	0	1	0	13.8	0	1.1	0.9;
	100348145	1	0	0	0	0	0	1	0	13.8	0	1.1	0.9;
	100348152	1	0	0	0	0	0	1	0	13.8	0	1.1	0.9;
	100348159	1	0	0	0	0	0	1	0	13.8	0	1.1	0.9;
	100348166	1	0	0	0	0	0	1	0	13.8	0	1.1	0.9;
	100348173	1	0	0	0	0	0	1	0	13.8	0	1.1	0.9;
	100348180	1	0	0	0	0	0	1	0	13.8	0	1.1	0.9;
	100348187	1	0	0	0	0	0	1	0	13.8	0	1.1	0.9;
	100348194	1	0.0624231946	0.0166068245	0	0	0	1	0	13.8	0	1.1	0.9;
	100348201	1	0	0	0	0	0	1	0	13.8	0	1.1	0.9;
	100348208	1	0	0	0	0	0	1	0	13.8	0	1.1	0.9;
	100348215	1	0	0	0	0	0	1	0	13.8	0	1.1	0.9;
	100348222	1	0	0	0	0	0	1	0	13.8	0	1.1	0.9;
	100348229	1	0.0519363931	0.0162609625	0	0	0	1	0	13.8	0	1.1	0.9;
	100348236	1	0	0	0	0	0	1	0	13.8	0	1.1	0.9;
	100348243	1	0	0	0	0	0	1	0	13.8	0	1.1	0.9;
	100348250	1	0.0339355536	0.00897062644	0	0	0	1	0	13.8	0	1.1	0.9;
	100348257	1	0	0	0	0	0	1	0	13.8	0	1.1	0.9;
	100348264	1	0.0767101303	0.0207244891	0	0	0	1	0	13.8	0	1.1	0.9;
	100348271	1	0	0	0	0	0	1	0	13.8	0	1.1	0.9;
	100348278	1	0.0398930451	0.0110607769	0	0	0	1	0	13.8	0	1.1	0.9;
	100348285	1	0	0	0	0	0	1	0	13.8	0	1.1	0.9;
	100348292	1	0	0	0	0	0	1	0	13.8	0	1.1	0.9;
	100348299	1	0.0228337762	0.0065659321	0	0	0	1	0	13.8	0	1.1	0.9;
	100348306	1	0	0	0	0	0	1	0	13.8	0	1.1	0.9;
	100348313	1	0.0353514958	0.00929763712	0	0	0	1	0	13.8	0	1.1	0.9;
	100349363	1	0	0	0	0	0	1	0	13.8	0	1.1	0.9;
	100349370	1	0.0569873663	0.0116789713	0	0	0	1	0	13.8	0	1.1	0.9;
	100349377	1	0	0	0	0	0	1	0	13.8	0	1.1	0.9;
	100349384	1	0	0	0	0	0	1	0	13.8	0	1.1	0.9;
	100349391	1	0	0	0	0	0	1	0	13.8	0	1.1	0.9;
	100349398	1	0	0	0	0	0	1	0	13.8	0	1.1	0.9;
	100349405	1	0	0	0	0	0	1	0	13.8	0	1.1	0.9;
	100349412	1	0.0461673278	0.00168029038	0	0	0	1	0	13.8	0	1.1	0.9;
	100349419	1	0.0583572072	0.00242920424	0	0	0	1	0	13.8	0	1.1	0.9;
	100349426	1	0	0	0	0	0	1	0	13.8	0	1.1	0.9;
	100349433	1	0.0104548703	0.00386711886	0	0	0	1	0	13.8	0	1.1	0.9;
	100349440	1	0.025254386	0.000427561734	0	0	0	1	0	13.8	0	1.1	0.9;
	100349447	1	0	0	0	0	0	1	0	13.8	0	1.1	0.9;
	100349454	1	0.177652078	0.0430406704	0	0	0	1	0	13.8	0	1.1	0.9;
	100349461	1	0	0	0	0	0	1	0	13.8	0	1.1	0.9;
	100349468	1	0.0882609054	0.0213018336	0	0	0	1	0	13.8	0	1.1	0.9;
	100349475	1	0.130094792	0.0374239066	0	0	0	1	0	13.8	0	1.1	0.9;
	100349482	1	0	0	0	0	0	1	0	13.8	0	1.1	0.9;
	100349489	1	0.0547611848	0.00510214591	0	0	0	1	0	13.8	0	1.1	0.9;
	100349496	1	0.0950691355	0.0267049068	0	0	0	1	0	13.8	0	1.1	0.9;
	100349503	1	0	0	0	0	0	1	0	13.8	0	1.1	0.9;
	100349510	1	0.041191581	0.0134858962	0	0	0	1	0	13.8	0	1.1	0.9;
	100349517	1	0	0	0	0	0	1	0	13.8	0	1.1	0.9;
	100349524	1	0	0	0	0	0	1	0	13.8	0	1.1	0.9;
	100349531	1	0.121951813	0.0395494604	0	0	0	1	0	13.8	0	1.1	0.9;
	100349538	1	0	0	0	0	0	1	0	13.8	0	1.1	0.9;
	100349545	1	0	0	0	0	0	1	0	13.8	0	1.1	0.9;
	100349552	1	0.0940911922	0.0252411206	0	0	0	1	0	13.8	0	1.1	0.9;
	100349559	1	0	0	0	0	0	1	0	13.8	0	1.1	0.9;
	100349566	1	0	0	0	0	0	1	0	13.8	0	1.1	0.9;
	100349573	1	0.0839994093	0.0182993699	0	0	0	1	0	13.8	0	1.1	0.9;
	100349580	1	0	0	0	0	0	1	0	13.8	0	1.1	0.9;
	100349587	1	0	0	0	0	0	1	0	13.8	0	1.1	0.9;
	100349594	1	0.0458258479	0.0131904156	0	0	0	1	0	13.8	0	1.1	0.9;
	100349601	1	0	0	0	0	0	1	0	13.8	0	1.1	0.9;
	100349608	1	0	0	0	0	0	1	0	13.8	0	1.1	0.9;
	100349615	1	0	0	0	0	0	1	0	13.8	0	1.1	0.9;
	100349622	1	0.0455728791	0.01248099	0	0	0	1	0	13.8	0	1.1	0.9;
	100349629	1	0	0	0	0	0	1	0	13.8	0	1.1	0.9;
	100349636	1	0	0	0	0	0	1	0	13.8	0	1.1	0.9;
	100349643	1	0	0	0	0	0	1	0	13.8	0	1.1	0.9;
	100349650	1	0	0	0	0	0	1	0	13.8	0	1.1	0.9;
	100349657	1	0.0583960208	0.0177751302	0	0	0	1	0	13.8	0	1.1	0.9;
	100349664	1	0.05175657	0.015059977	0	0	0	1	0	13.8	0	1.1	0.9;
	100349671	1	0.0719539006	0.0204562418	0	0	0	1	0	13.8	0	1.1	0.9;
	100349678	1	0.0419081925	0.011044437	0	0	0	1	0	13.8	0	1.1	0.9;
	100349685	1	0.0586170184	0.0153772441	0	0	0	1	0	13.8	0	1.1	0.9;
	100349692	1	0.095301337	0.0224960108	0	0	0	1	0	13.8	0	1.1	0.9;
	100349699	1	0	0	0	0	0	1	0	13.8	0	1.1	0.9;
	100349706	1	0	0	0	0	0	1	0	13.8	0	1.1	0.9;
	100349713	1	0.0505655518	0.0133715166	0	0	0	1	0	13.8	0	1.1	0.9;
	100349720	1	0	0	0	0	0	1	0	13.8	0	1.1	0.9;
	100349727	1	0.0488478688	0.0134654713	0	0	0	1	0	13.8	0	1.1	0.9;
	100349734	1	0	0	0	0	0	1	0	13.8	0	1.1	0.9;
	100349741	1	0	0	0	0	0	1	0	13.8	0	1.1	0.9;
	100349748	1	0.0457414182	0.0126729843	0	0	0	1	0	13.8	0	1.1	0.9;
	100349755	1	0.0362316797	0.00960924571	0	0	0	1	0	13.8	0	1.1	0.9;
	100349762	1	0.035224086	0.00928517026	0	0	0	1	0	13.8	0	1.1	0.9;
	100349769	1	0.0568792884	0.0150586153	0	0	0	1	0	13.8	0	1.1	0.9;
	100349776	1	0	0	0	0	0	1	0	13.8	0	1.1	0.9;
	100349783	1	0.0587964814	0.0165618897	0	0	0	1	0	13.8	0	1.1	0.9;
	100349790	1	0	0	0	0	0	1	0	13.8	0	1.1	0.9;
	100349797	1	0.175131153	0.0445371948	0	0	0	1	0	13.8	0	1.1	0.9;
	100349874	1	0	0	0	0	0	1	0	13.8	0	1.1	0.9;
	100349972	1	0	0	0	0	0	1	0	13.8	0	1.1	0.9;
	100349986	1	0	0	0	0	0	1	0	13.8	0	1.1	0.9;
	100350028	1	0	0	0	0	0	1	0	13.8	0	1.1	0.9;
	100350035	1	0	0	0	0	0	1	0	13.8	0	1.1	0.9;
	100350077	1	0	0	0	0	0	1	0	13.8	0	1.1	0.9;
	100350119	1	0	0	0	0	0	1	0	13.8	0	1.1	0.9;
	100350126	1	0	0	0	0	0	1	0	13.8	0	1.1	0.9;
	100350133	1	0.0441765889	0.010424881	0	0	0	1	0	13.8	0	1.1	0.9;
	100350140	1	0.0617025417	0.0145575239	0	0	0	1	0	13.8	0	1.1	0.9;
	100350147	1	0.0762390849	0.0187351016	0	0	0	1	0	13.8	0	1.1	0.9;
	100350154	1	0	0	0	0	0	1	0	13.8	0	1.1	0.9;
	100350161	1	0.0876089565	0.022535499	0	0	0	1	0	13.8	0	1.1	0.9;
	100350168	1	0.092230459	0.0249742349	0	0	0	1	0	13.8	0	1.1	0.9;
	100350175	1	0.0798495524	0.0173802483	0	0	0	1	0	13.8	0	1.1	0.9;
	100350182	1	0	0	0	0	0	1	0	13.8	0	1.1	0.9;
	100350189	1	0	0	0	0	0	1	0	13.8	0	1.1	0.9;
	100350196	1	0	0	0	0	0	1	0	13.8	0	1.1	0.9;
	100350203	1	0.017703335	0.0065482305	0	0	0	1	0	13.8	0	1.1	0.9;
	100350210	1	0	0	0	0	0	1	0	13.8	0	1.1	0.9;
	100350217	1	0.0519842899	0.0139611161	0	0	0	1	0	13.8	0	1.1	0.9;
	100350224	1	0.035443443	0.00946354793	0	0	0	1	0	13.8	0	1.1	0.9;
	100350231	1	0	0	0	0	0	1	0	13.8	0	1.1	0.9;
	100350238	1	0	0	0	0	0	1	0	13.8	0	1.1	0.9;
	100350245	1	0	0	0	0	0	1	0	13.8	0	1.1	0.9;
	100350252	1	0.0305898591	0.00726310283	0	0	0	1	0	13.8	0	1.1	0.9;
	100350259	1	0.0372215072	0.0101212305	0	0	0	1	0	13.8	0	1.1	0.9;
	100350266	1	0.0441709469	0.0106658951	0	0	0	1	0	13.8	0	1.1	0.9;
	100350273	1	0	0	0	0	0	1	0	13.8	0	1.1	0.9;
	100350280	1	0.00801637427	0.0022358483	0	0	0	1	0	13.8	0	1.1	0.9;
	100350322	1	0	0	0	0	0	1	0	13.8	0	1.1	0.9;
	100350329	1	0.256097886	0.0639601367	0	0	0	1	0	13.8	0	1.1	0.9;
	131503444	1	0	0	0	0	0	1	0	13.8	0	1.1	0.9;
	131503451	1	0	0	0	0	0	1	0	13.8	0	1.1	0.9;
	139827795	1	0	0	0	0	0	1	0	13.8	0	1.1	0.9;
	139827802	1	0.011467866	0.00294527398	0	0	0	1	0	13.8	0	1.1	0.9;
	139827809	1	0.0306318738	0.00419936429	0	0	0	1	0	13.8	0	1.1	0.9;
	139827816	1	0	0	0	0	0	1	0	13.8	0	1.1	0.9;
	139827823	1	0	0	0	0	0	1	0	13.8	0	1.1	0.9;
	139827830	1	0.0196875516	0.00728216609	0	0	0	1	0	13.8	0	1.1	0.9;
	139827837	1	0.0968065455	0.0142525117	0	0	0	1	0	13.8	0	1.1	0.9;
	139827844	1	0	0	0	0	0	1	0	13.8	0	1.1	0.9;
	148545772	1	0	0	0	0	0	1	0	13.8	0	1.1	0.9;
	148545773	1	0.100830838	0.014444506	0	0	0	1	0	13.8	0	1.1	0.9;
	149077299	1	0	0	0	0	0	1	0	13.8	0	1.1	0.9;
	149077300	1	0.0265479601	0.00544392296	0	0	0	1	0	13.8	0	1.1	0.9;
	149077301	1	0.0407658715	0.00841779184	0	0	0	1	0	13.8	0	1.1	0.9;
	149077302	1	0	0	0	0	0	1	0	13.8	0	1.1	0.9;
	149077303	1	0	0	0	0	0	1	0	13.8	0	1.1	0.9;
	149077304	1	0.0729290829	0.0178187033	0	0	0	1	0	13.8	0	1.1	0.9;
	149077305	1	0	0	0	0	0	1	0	13.8	0	1.1	0.9;
	149077306	1	0.00430999309	0.000232844129	0	0	0	1	0	13.8	0	1.1	0.9;
	149077307	1	0	0	0	0	0	1	0	13.8	0	1.1	0.9;
	149077308	1	0	0	0	0	0	1	0	13.8	0	1.1	0.9;
	149077309	1	0	0	0	0	0	1	0	13.8	0	1.1	0.9;
	149077310	1	0	0	0	0	0	1	0	13.8	0	1.1	0.9;
	149077311	1	0.00613415349	0	0	0	0	1	0	13.8	0	1.1	0.9;
	149077312	1	0.000701046113	0	0	0	0	1	0	13.8	0	1.1	0.9;
	149077313	1	0	0	0	0	0	1	0	13.8	0	1.1	0.9;
	149087205	1	0	0	0	0	0	1	0	13.8	0	1.1	0.9;
	149087298	1	0	0	0	0	0	1	0	13.8	0	1.1	0.9;
	149087299	1	0	0	0	0	0	1	0	13.8	0	1.1	0.9;
	149087300	1	0	0	0	0	0	1	0	13.8	0	1.1	0.9;
	150340829	1	0	0	0	0	0	1	0	13.8	0	1.1	0.9;
	150340830	1	0	0	0	0	0	1	0	13.8	0	1.1	0.9;
	150340831	1	0	0	0	0	0	1	0	13.8	0	1.1	0.9;
	150340832	1	0	0	0	0	0	1	0	13.8	0	1.1	0.9;
	150340833	1	0	0	0	0	0	1	0	13.8	0	1.1	0.9;
	150340834	1	0	0	0	0	0	1	0	13.8	0	1.1	0.9;
	150340835	1	0	0	0	0	0	1	0	13.8	0	1.1	0.9;
	150340836	1	0	0	0	0	0	1	0	13.8	0	1.1	0.9;
	150340837	1	1.36374366	0.375964688	0	0	0	1	0	13.8	0	1.1	0.9;
	150369475	1	0	0	0	0	0	1	0	13.8	0	1.1	0.9;
	150369476	1	0	0	0	0	0	1	0	13.8	0	1.1	0.9;
	150369477	1	0.131625049	0.0351213369	0	0	0	1	0	13.8	0	1.1	0.9;
	150369478	1	0.0628446226	0.0191613016	0	0	0	1	0	13.8	0	1.1	0.9;
	150513442	1	0	0	0	0	0	1	0	13.8	0	1.1	0.9;
	150513443	1	0	0	0	0	0	1	0	13.8	0	1.1	0.9;
	150513444	1	0	0	0	0	0	1	0	13.8	0	1.1	0.9;
	150513445	1	0.0411903405	0.010778913	0	0	0	1	0	13.8	0	1.1	0.9;
	150513446	1	0.0387445619	0.0119649202	0	0	0	1	0	13.8	0	1.1	0.9;
	150513447	1	0	0	0	0	0	1	0	13.8	0	1.1	0.9;
	150513448	1	0.0657543641	0.0201403363	0	0	0	1	0	13.8	0	1.1	0.9;
	150513449	1	0	0	0	0	0	1	0	13.8	0	1.1	0.9;
	150513450	1	0	0	0	0	0	1	0	13.8	0	1.1	0.9;
	150513451	1	0	0	0	0	0	1	0	13.8	0	1.1	0.9;
	150513452	1	0.064124632	0.0180951206	0	0	0	1	0	13.8	0	1.1	0.9;
	150513453	1	0	0	0	0	0	1	0	13.8	0	1.1	0.9;
	150513454	1	0	0	0	0	0	1	0	13.8	0	1.1	0.9;
	150513455	1	0	0	0	0	0	1	0	13.8	0	1.1	0.9;
	150513456	1	0.0658215077	0.0183824312	0	0	0	1	0	13.8	0	1.1	0.9;
	150513457	1	0.0484572117	0.0134668329	0	0	0	1	0	13.8	0	1.1	0.9;
	150513458	1	0	0	0	0	0	1	0	13.8	0	1.1	0.9;
	151228381	1	0	0	0	0	0	1	0	13.8	0	1.1	0.9;
	151228382	1	0.0589996728	0.0151784415	0	0	0	1	0	13.8	0	1.1	0.9;
	151228383	1	0	0	0	0	0	1	0	13.8	0	1.1	0.9;
	151228384	1	0	0	0	0	0	1	0	13.8	0	1.1	0.9;
	151228385	1	0.0903303519	0.0239148622	0	0	0	1	0	13.8	0	1.1	0.9;
	151228386	1	0.0726575876	0.0195820551	0	0	0	1	0	13.8	0	1.1	0.9;
	151228387	1	0.0249636439	0.00612203043	0	0	0	1	0	13.8	0	1.1	0.9;
	2028274	1	0	0	0	0	0	1	0	13.8	0	1.1	0.9;
	2029100	1	0	0	0	0	0	1	0	13.8	0	1.1	0.9;
	2029114	1	0	0	0	0	0	1	0	13.8	0	1.1	0.9;
	22611941	1	0	0	0	0	0	1	0	13.8	0	1.1	0.9;
	2288499	1	0	0	0	0	0	1	0	13.8	0	1.1	0.9;
	2391665	1	0	0	0	0	0	1	0	13.8	0	1.1	0.9;
	24061662	1	0	0	0	0	0	1	0	13.8	0	1.1	0.9;
];

%% generator data
%	bus	Pg	Qg	Qmax	Qmin	Vg	mBase	status	Pmax	Pmin	Pc1	Pc2	Qc1min	Qc1max	Qc2min	Qc2max	ramp_agc	ramp_10	ramp_30	ramp_q	apf
mpc.gen = [
	100347669	5	0	2.5	-2.5	1	1	1	10	5	0	0	0	0	0	0	0	0	0	0	0;
];

%% branch data
%	fbus	tbus	r	x	b	rateA	rateB	rateC	ratio	angle	status	angmin	angmax
mpc.branch = [
	100347711	100347718	0.000137372922	0.000145218034	-2.62549884e-09	0.0037812	0.005658	0.0062928	1	0	1	-360	360;
	100347704	100347711	2.62549884e-07	2.62549884e-07	-2.62549884e-09	6	8	10	1	0	1	-360	360;
	100347725	100347732	4.38698024e-05	4.63751252e-05	-2.62549884e-09	0.0037812	0.005658	0.0062928	1	0	1	-360	360;
	100347732	100347739	0.000340414334	0.000359854764	-2.62549884e-09	0.0037812	0.005658	0.0062928	1	0	1	-360	360;
	100347739	24061662	9.87364042e-06	1.04375057e-05	-2.62549884e-09	0.0037812	0.005658	0.0062928	1	0	1	-360	360;
	100347739	100347746	3.77983105e-05	3.99569017e-05	-2.62549884e-09	0.0037812	0.005658	0.0062928	1	0	1	-360	360;
	100347718	100347725	2.62549884e-07	2.62549884e-07	-2.62549884e-09	6	8	10	1	0	1	-360	360;
	100347753	100347760	5.31343793e-05	6.71689312e-05	-2.62549884e-09	0.0025944	0.0038916	0.0043332	1	0	1	-360	360;
	100347760	100347767	0.000286835114	0.000362597781	-2.62549884e-09	0.0025944	0.0038916	0.0043332	1	0	1	-360	360;
	100347767	100347781	0.000112376118	4.94255534e-05	-2.62549884e-09	0.0012282	0.0018492	0.0020562	1	0	1	-360	360;
	100347767	100347774	0.000300220838	0.000379519118	-2.62549884e-09	0.0025944	0.0038916	0.0043332	1	0	1	-360	360;
	100347774	100347802	0.000156512118	6.45183848e-05	-2.62549884e-09	0.001863	0.0028014	0.003105	1	0	1	-360	360;
	100347774	100347795	6.73971578e-05	8.51989825e-05	-2.62549884e-09	0.0025944	0.0038916	0.0043332	1	0	1	-360	360;
	100347795	100347809	0.000215811433	0.00027281439	-2.62549884e-09	0.0025944	0.0038916	0.0043332	1	0	1	-360	360;
	100347781	100347788	0.000886172201	0.000270545653	-2.62549884e-09	0.000828	0.001242	0.0013938	1	0	1	-360	360;
	100347746	100347753	2.62549884e-07	2.62549884e-07	-2.62549884e-09	6	8	10	1	0	1	-360	360;
	100347809	100347816	2.62549884e-07	2.62549884e-07	-2.62549884e-09	6	8	10	1	0	1	-360	360;
	100347816	100347823	6.36708045e-05	8.04883756e-05	-2.62549884e-09	0.0025944	0.0038916	0.0043332	1	0	1	-360	360;
	100347823	100347844	6.30248758e-05	7.96718357e-05	-2.62549884e-09	0.0025944	0.0038916	0.0043332	1	0	1	-360	360;
	100347823	100347837	2.11482872e-05	2.67342512e-05	-2.62549884e-09	0.0025944	0.0038916	0.0043332	1	0	1	-360	360;
	100347823	100347830	4.48622657e-05	5.6711878e-05	-2.62549884e-09	0.0025944	0.0038916	0.0043332	1	0	1	-360	360;
	100347837	100347851	0.00029100989	0.000127992718	-2.62549884e-09	0.0012282	0.0018492	0.0020562	1	0	1	-360	360;
	100347879	100347886	0.000106493448	0.000134621899	-2.62549884e-09	0.0025944	0.0038916	0.0043332	1	0	1	-360	360;
	100347886	100347900	9.20409463e-05	0.000120473795	-2.62549884e-09	0.002415	0.0036294	0.0040434	1	0	1	-360	360;
	100347886	100347893	0.000123635771	0.000161828741	-2.62549884e-09	0.002415	0.0036294	0.0040434	1	0	1	-360	360;
	100347893	100347914	0.00016941641	0.000221751717	-2.62549884e-09	0.002415	0.0036294	0.0040434	1	0	1	-360	360;
	100347914	100347921	0.000179230828	0.000226571633	-2.62549884e-09	0.0025944	0.0038916	0.0043332	1	0	1	-360	360;
	100347921	100347928	7.56992991e-05	9.56939946e-05	-2.62549884e-09	0.0025944	0.0038916	0.0043332	1	0	1	-360	360;
	100347844	100347879	2.62549884e-07	2.62549884e-07	-2.62549884e-09	6	8	10	1	0	1	-360	360;
	100347900	100347907	2.62549884e-07	2.62549884e-07	-2.62549884e-09	6	8	10	1	0	1	-360	360;
	100347928	100347935	2.62549884e-07	2.62549884e-07	-2.62549884e-09	6	8	10	1	0	1	-360	360;
	100347942	100347949	0.000158616908	6.5386034e-05	-2.62549884e-09	0.001863	0.0028014	0.003105	1	0	1	-360	360;
	100347949	100347956	0.000611176338	0.000251942856	-2.62549884e-09	0.001863	0.0028014	0.003105	1	0	1	-360	360;
	100347956	100347970	0.000351286517	0.000144809481	-2.62549884e-09	0.001863	0.0028014	0.003105	1	0	1	-360	360;
	100347956	100347963	0.000179107187	7.38326624e-05	-2.62549884e-09	0.001863	0.0028014	0.003105	1	0	1	-360	360;
	100347921	100347942	2.62549884e-07	2.62549884e-07	-2.62549884e-09	6	8	10	1	0	1	-360	360;
	100348047	100348061	3.52691533e-05	4.45849064e-05	-2.62549884e-09	0.0025944	0.0038916	0.0043332	1	0	1	-360	360;
	100348061	100348075	0.000113062662	4.66073835e-05	-2.62549884e-09	0.001863	0.0028014	0.003105	1	0	1	-360	360;
	100348061	100348068	9.00356085e-06	1.13816999e-05	-2.62549884e-09	0.0025944	0.0038916	0.0043332	1	0	1	-360	360;
	100348068	100348096	0.000102041933	0.000128994592	-2.62549884e-09	0.0025944	0.0038916	0.0043332	1	0	1	-360	360;
	100348068	100348089	4.87443582e-05	6.16193599e-05	-2.62549884e-09	0.0025944	0.0038916	0.0043332	1	0	1	-360	360;
	100348089	100348103	0.000205757925	0.000260105417	-2.62549884e-09	0.0025944	0.0038916	0.0043332	1	0	1	-360	360;
	100348103	100348110	0.000229907941	0.000243037556	-2.62549884e-09	0.0037812	0.005658	0.0062928	1	0	1	-360	360;
	100348110	100348117	7.01187573e-05	7.41231092e-05	-2.62549884e-09	0.0037812	0.005658	0.0062928	1	0	1	-360	360;
	100348075	100348082	0.000464556393	0.000191502284	-2.62549884e-09	0.001863	0.0028014	0.003105	1	0	1	-360	360;
	100348117	2391665	2.62549884e-07	2.62549884e-07	-2.62549884e-09	6	8	10	1	0	1	-360	360;
	100348124	100348131	5.75781024e-05	7.27863889e-05	-2.62549884e-09	0.0025944	0.0038916	0.0043332	1	0	1	-360	360;
	100348131	100348138	6.02818608e-05	7.62042995e-05	-2.62549884e-09	0.0025944	0.0038916	0.0043332	1	0	1	-360	360;
	100348138	2028274	7.95611022e-05	5.69227608e-05	-2.62549884e-09	0.0028428	0.0042642	0.0047472	1	0	1	-360	360;
	100348138	100348145	5.98630621e-05	7.56748822e-05	-2.62549884e-09	0.0025944	0.0038916	0.0043332	1	0	1	-360	360;
	100348145	100348159	5.44648245e-05	6.88507911e-05	-2.62549884e-09	0.0025944	0.0038916	0.0043332	1	0	1	-360	360;
	100348145	100348152	8.75963642e-05	0.000110733469	-2.62549884e-09	0.0025944	0.0038916	0.0043332	1	0	1	-360	360;
	100348152	100348180	0.000104857643	0.000132554025	-2.62549884e-09	0.0025944	0.0038916	0.0043332	1	0	1	-360	360;
	100348152	100348166	5.98630621e-05	7.56748822e-05	-2.62549884e-09	0.0025944	0.0038916	0.0043332	1	0	1	-360	360;
	100348180	100348194	0.000103132642	0.000130373394	-2.62549884e-09	0.0025944	0.0038916	0.0043332	1	0	1	-360	360;
	100348180	100348187	5.18564156e-05	6.55534149e-05	-2.62549884e-09	0.0025944	0.0038916	0.0043332	1	0	1	-360	360;
	100348194	100348201	0.000125875371	0.000159123231	-2.62549884e-09	0.0025944	0.0038916	0.0043332	1	0	1	-360	360;
	100348096	100348124	2.62549884e-07	2.62549884e-07	-2.62549884e-09	6	8	10	1	0	1	-360	360;
	100348166	100348173	2.62549884e-07	2.62549884e-07	-2.62549884e-09	6	8	10	1	0	1	-360	360;
	100348208	100348215	0.00013137842	5.41576175e-05	-2.62549884e-09	0.001863	0.0028014	0.003105	1	0	1	-360	360;
	100348215	100348229	0.000243685896	0.000272562931	-2.62549884e-09	0.0006624	0.0013662	0.0015318	1	0	1	-360	360;
	100348215	100348222	0.000134103958	5.52811554e-05	-2.62549884e-09	0.001863	0.0028014	0.003105	1	0	1	-360	360;
	100348222	100348236	0.00033193897	0.000371274088	-2.62549884e-09	0.0006624	0.0013662	0.0015318	1	0	1	-360	360;
	100348236	100348250	0.000372492786	0.000416633574	-2.62549884e-09	0.0006624	0.0013662	0.0015318	1	0	1	-360	360;
	100348236	100348243	0.000500565886	0.000559883471	-2.62549884e-09	0.0006624	0.0013662	0.0015318	1	0	1	-360	360;
	100348243	100348264	0.000508546937	0.000568810285	-2.62549884e-09	0.0006624	0.0013662	0.0015318	1	0	1	-360	360;
	100348243	100348257	0.00141634521	0.00158418362	-2.62549884e-09	0.0006624	0.0013662	0.0015318	1	0	1	-360	360;
	100348257	100348299	0.000297190225	0.00033240758	-2.62549884e-09	0.0006624	0.0013662	0.0015318	1	0	1	-360	360;
	100348264	100348271	0.000233030445	0.000260644799	-2.62549884e-09	0.0006624	0.0013662	0.0015318	1	0	1	-360	360;
	100348271	100348285	9.90634082e-05	0.000110802527	-2.62549884e-09	0.0006624	0.0013662	0.0015318	1	0	1	-360	360;
	100348271	100348278	0.00119821275	0.00134020222	-2.62549884e-09	0.0006624	0.0013662	0.0015318	1	0	1	-360	360;
	100348285	100348292	0.00062645102	0.000258239479	-2.62549884e-09	0.001863	0.0028014	0.003105	1	0	1	-360	360;
	100348187	100348208	2.62549884e-07	2.62549884e-07	-2.62549884e-09	6	8	10	1	0	1	-360	360;
	100348306	100348313	7.91935939e-05	3.48311302e-05	-2.62549884e-09	0.0012282	0.0018492	0.0020562	1	0	1	-360	360;
	100348257	100348306	2.62549884e-07	2.62549884e-07	-2.62549884e-09	6	8	10	1	0	1	-360	360;
	100349363	100349370	6.08587225e-05	7.69335296e-05	-2.62549884e-09	0.0025944	0.0038916	0.0043332	1	0	1	-360	360;
	100349370	100349377	0.0002315775	0.000292744798	-2.62549884e-09	0.0025944	0.0038916	0.0043332	1	0	1	-360	360;
	100349377	100349391	0.000151400782	0.000169341934	-2.62549884e-09	0.0006624	0.0013662	0.0015318	1	0	1	-360	360;
	100349377	100349384	6.55681802e-05	8.28869112e-05	-2.62549884e-09	0.0025944	0.0038916	0.0043332	1	0	1	-360	360;
	100348054	100349363	2.62549884e-07	2.62549884e-07	-2.62549884e-09	6	8	10	1	0	1	-360	360;
	100349398	100349405	0.000741452205	0.000326107416	-2.62549884e-09	0.0012282	0.0018492	0.0020562	1	0	1	-360	360;
	100349405	100349426	0.000222600765	9.79048413e-05	-2.62549884e-09	0.0012282	0.0018492	0.0020562	1	0	1	-360	360;
	100349405	100349419	0.000327208852	0.000143913839	-2.62549884e-09	0.0012282	0.0018492	0.0020562	1	0	1	-360	360;
	100349405	100349412	0.000262546676	0.000115473955	-2.62549884e-09	0.0012282	0.0018492	0.0020562	1	0	1	-360	360;
	100349419	100349433	0.000248978157	0.000102635302	-2.62549884e-09	0.001863	0.0028014	0.003105	1	0	1	-360	360;
	100349433	100349440	0.000991312091	0.000436001434	-2.62549884e-09	0.0012282	0.0018492	0.0020562	1	0	1	-360	360;
	100349391	100349398	2.62549884e-07	2.62549884e-07	-2.62549884e-09	6	8	10	1	0	1	-360	360;
	100349447	100349454	5.87083415e-05	1.04275156e-05	-2.62549884e-09	0.001449	0.0021666	0.002415	1	0	1	-360	360;
	100349426	100349447	2.62549884e-07	2.62549884e-07	-2.62549884e-09	6	8	10	1	0	1	-360	360;
	100349461	100349468	0.000342997542	0.000141392549	-2.62549884e-09	0.001863	0.0028014	0.003105	1	0	1	-360	360;
	100349468	100349475	0.000401570881	0.00016553801	-2.62549884e-09	0.001863	0.0028014	0.003105	1	0	1	-360	360;
	100347998	100349461	2.62549884e-07	2.62549884e-07	-2.62549884e-09	6	8	10	1	0	1	-360	360;
	100349482	22611941	0.00018826742	8.28042609e-05	-2.62549884e-09	0.0012282	0.0018492	0.0020562	1	0	1	-360	360;
	22611941	100349489	0.00087089956	0.000383041285	-2.62549884e-09	0.0012282	0.0018492	0.0020562	1	0	1	-360	360;
	100347991	100349482	2.62549884e-07	2.62549884e-07	-2.62549884e-09	6	8	10	1	0	1	-360	360;
	100347907	100349496	2.56578515e-05	3.35839521e-05	-2.62549884e-09	0.002415	0.0036294	0.0040434	1	0	1	-360	360;
	100349496	100349503	7.39098673e-05	9.67417497e-05	-2.62549884e-09	0.002415	0.0036294	0.0040434	1	0	1	-360	360;
	100349503	100349517	0.000145142695	0.000189979482	-2.62549884e-09	0.002415	0.0036294	0.0040434	1	0	1	-360	360;
	100349503	100349510	0.000405868081	0.000178509943	-2.62549884e-09	0.0012282	0.0018492	0.0020562	1	0	1	-360	360;
	100349517	100349531	7.54311911e-05	9.87330335e-05	-2.62549884e-09	0.002415	0.0036294	0.0040434	1	0	1	-360	360;
	100349517	100349524	0.000255198157	0.00011224191	-2.62549884e-09	0.0012282	0.0018492	0.0020562	1	0	1	-360	360;
	100349531	100349538	0.000312335034	0.000408820077	-2.62549884e-09	0.002415	0.0036294	0.0040434	1	0	1	-360	360;
	100349538	100349552	6.03848221e-05	7.90386122e-05	-2.62549884e-09	0.002415	0.0036294	0.0040434	1	0	1	-360	360;
	100349538	100349545	0.000130515049	5.38017134e-05	-2.62549884e-09	0.001863	0.0028014	0.003105	1	0	1	-360	360;
	100349552	100349559	8.22881479e-05	0.000107708209	-2.62549884e-09	0.002415	0.0036294	0.0040434	1	0	1	-360	360;
	100349559	100349566	0.000143474364	0.000187795777	-2.62549884e-09	0.002415	0.0036294	0.0040434	1	0	1	-360	360;
	100349566	100349573	3.88901777e-05	5.09039452e-05	-2.62549884e-09	0.002415	0.0036294	0.0040434	1	0	1	-360	360;
	100349573	2288499	4.09861586e-05	5.36474065e-05	-2.62549884e-09	0.002415	0.0036294	0.0040434	1	0	1	-360	360;
	100349580	100349587	0.000432396638	0.000190177802	-2.62549884e-09	0.0012282	0.0018492	0.0020562	1	0	1	-360	360;
	100349587	100349594	0.000327437226	0.000144014283	-2.62549884e-09	0.0012282	0.0018492	0.0020562	1	0	1	-360	360;
	100349524	100349580	2.62549884e-07	2.62549884e-07	-2.62549884e-09	6	8	10	1	0	1	-360	360;
	100349601	100349608	5.05376979e-05	2.22276203e-05	-2.62549884e-09	0.0012282	0.0018492	0.0020562	1	0	1	-360	360;
	100349587	100349601	2.62549884e-07	2.62549884e-07	-2.62549884e-09	6	8	10	1	0	1	-360	360;
	100349615	100349622	0.000426385198	0.00017576712	-2.62549884e-09	0.001863	0.0028014	0.003105	1	0	1	-360	360;
	100349622	100349629	0.000161629485	6.66278972e-05	-2.62549884e-09	0.001863	0.0028014	0.003105	1	0	1	-360	360;
	100349629	100349650	0.000126943418	5.23293937e-05	-2.62549884e-09	0.001863	0.0028014	0.003105	1	0	1	-360	360;
	100349629	100349643	0.000485525628	0.00020014635	-2.62549884e-09	0.001863	0.0028014	0.003105	1	0	1	-360	360;
	100349629	100349636	0.000452889256	0.000186692785	-2.62549884e-09	0.001863	0.0028014	0.003105	1	0	1	-360	360;
	100349636	100349685	0.000788818353	0.000325171536	-2.62549884e-09	0.001863	0.0028014	0.003105	1	0	1	-360	360;
	100349636	100349678	0.00015142092	6.24196597e-05	-2.62549884e-09	0.001863	0.0028014	0.003105	1	0	1	-360	360;
	100349636	100349671	0.000465996678	0.000192096007	-2.62549884e-09	0.001863	0.0028014	0.003105	1	0	1	-360	360;
	100349678	100349692	0.000882062346	0.000363609147	-2.62549884e-09	0.001863	0.0028014	0.003105	1	0	1	-360	360;
	100349692	100349699	0.00020548739	8.47072715e-05	-2.62549884e-09	0.001863	0.0028014	0.003105	1	0	1	-360	360;
	100349643	100349664	0.000674672837	0.000278117772	-2.62549884e-09	0.001863	0.0028014	0.003105	1	0	1	-360	360;
	100349643	100349657	0.00012853656	5.29861285e-05	-2.62549884e-09	0.001863	0.0028014	0.003105	1	0	1	-360	360;
	100349545	100349615	2.62549884e-07	2.62549884e-07	-2.62549884e-09	6	8	10	1	0	1	-360	360;
	100349706	100349713	0.00055613831	0.000244602182	-2.62549884e-09	0.0012282	0.0018492	0.0020562	1	0	1	-360	360;
	100349713	100349720	0.000432420823	0.000190188439	-2.62549884e-09	0.0012282	0.0018492	0.0020562	1	0	1	-360	360;
	100349720	100349734	0.000599153664	0.000263521306	-2.62549884e-09	0.0012282	0.0018492	0.0020562	1	0	1	-360	360;
	100349720	100349727	0.000545201377	0.000239791872	-2.62549884e-09	0.0012282	0.0018492	0.0020562	1	0	1	-360	360;
	100349734	100349748	0.000133178429	5.85748792e-05	-2.62549884e-09	0.0012282	0.0018492	0.0020562	1	0	1	-360	360;
	100349734	100349741	0.000424833701	0.000186851451	-2.62549884e-09	0.0012282	0.0018492	0.0020562	1	0	1	-360	360;
	100349741	100349769	0.000163413821	7.18730872e-05	-2.62549884e-09	0.0012282	0.0018492	0.0020562	1	0	1	-360	360;
	100349741	100349762	0.00104378343	0.000459079515	-2.62549884e-09	0.0012282	0.0018492	0.0020562	1	0	1	-360	360;
	100349748	100349755	0.000701960592	0.000308738114	-2.62549884e-09	0.0012282	0.0018492	0.0020562	1	0	1	-360	360;
	100349650	100349706	2.62549884e-07	2.62549884e-07	-2.62549884e-09	6	8	10	1	0	1	-360	360;
	100349776	100349783	0.00158914204	0.00177745705	-2.62549884e-09	0.0006624	0.0013662	0.0015318	1	0	1	-360	360;
	100349566	100349776	2.62549884e-07	2.62549884e-07	-2.62549884e-09	6	8	10	1	0	1	-360	360;
	100349790	100349797	9.43971368e-05	4.15179915e-05	-2.62549884e-09	0.0012282	0.0018492	0.0020562	1	0	1	-360	360;
	100349559	100349790	2.62549884e-07	2.62549884e-07	-2.62549884e-09	6	8	10	1	0	1	-360	360;
	100350119	100350126	0.000515004447	0.000226510581	-2.62549884e-09	0.0012282	0.0018492	0.0020562	1	0	1	-360	360;
	100350126	100350140	0.000270436918	0.000302483978	-2.62549884e-09	0.0006624	0.0013662	0.0015318	1	0	1	-360	360;
	100350126	100350133	0.000767860262	0.000337722276	-2.62549884e-09	0.0012282	0.0018492	0.0020562	1	0	1	-360	360;
	100350133	100350147	0.000589206247	0.000259146207	-2.62549884e-09	0.0012282	0.0018492	0.0020562	1	0	1	-360	360;
	100350147	100350154	0.00217370679	0.00243129334	-2.62549884e-09	0.0006624	0.0013662	0.0015318	1	0	1	-360	360;
	100350154	100350168	0.000250069196	0.000279702659	-2.62549884e-09	0.0006624	0.0013662	0.0015318	1	0	1	-360	360;
	100350154	100350161	0.000797378043	0.000891868183	-2.62549884e-09	0.0006624	0.0013662	0.0015318	1	0	1	-360	360;
	100350168	100350175	0.00124792963	0.00139581061	-2.62549884e-09	0.0006624	0.0013662	0.0015318	1	0	1	-360	360;
	100350035	100350119	2.62549884e-07	2.62549884e-07	-2.62549884e-09	6	8	10	1	0	1	-360	360;
	100350182	100350189	9.1030173e-05	4.00371249e-05	-2.62549884e-09	0.0012282	0.0018492	0.0020562	1	0	1	-360	360;
	100350189	100350196	0.000114378536	5.03062618e-05	-2.62549884e-09	0.0012282	0.0018492	0.0020562	1	0	1	-360	360;
	100350196	100350203	4.76474063e-05	2.09564048e-05	-2.62549884e-09	0.0012282	0.0018492	0.0020562	1	0	1	-360	360;
	100350077	100350182	2.62549884e-07	2.62549884e-07	-2.62549884e-09	6	8	10	1	0	1	-360	360;
	100350210	100350217	0.000250069196	0.000279702659	-2.62549884e-09	0.0006624	0.0013662	0.0015318	1	0	1	-360	360;
	100350217	100350224	0.0015430732	0.001725929	-2.62549884e-09	0.0006624	0.0013662	0.0015318	1	0	1	-360	360;
	100350224	100350231	0.00109900859	0.00122924227	-2.62549884e-09	0.0006624	0.0013662	0.0015318	1	0	1	-360	360;
	100350231	100350245	7.23127248e-05	8.0881859e-05	-2.62549884e-09	0.0006624	0.0013662	0.0015318	1	0	1	-360	360;
	100350231	100350238	0.000653070739	0.00073046031	-2.62549884e-09	0.0006624	0.0013662	0.0015318	1	0	1	-360	360;
	100350238	100350266	0.000605926266	0.000677729168	-2.62549884e-09	0.0006624	0.0013662	0.0015318	1	0	1	-360	360;
	100350238	100350259	0.00103814545	0.00116116678	-2.62549884e-09	0.0006624	0.0013662	0.0015318	1	0	1	-360	360;
	100350266	100350273	0.00140634645	0.00157299999	-2.62549884e-09	0.0006624	0.0013662	0.0015318	1	0	1	-360	360;
	100350273	100350280	0.000331580194	0.000145836454	-2.62549884e-09	0.0012282	0.0018492	0.0020562	1	0	1	-360	360;
	100350245	100350252	0.000174173786	7.66055626e-05	-2.62549884e-09	0.0012282	0.0018492	0.0020562	1	0	1	-360	360;
	100350028	100350210	2.62549884e-07	2.62549884e-07	-2.62549884e-09	6	8	10	1	0	1	-360	360;
	100350322	100350329	4.50637199e-05	8.00401838e-06	-2.62549884e-09	0.001449	0.0021666	0.002415	1	0	1	-360	360;
	100347697	100350322	2.62549884e-07	2.62549884e-07	-2.62549884e-09	6	8	10	1	0	1	-360	360;
	131503444	131503451	4.3581506e-05	4.60703648e-05	-2.62549884e-09	0.0037812	0.005658	0.0062928	1	0	1	-360	360;
	100347676	131503444	2.62549884e-07	2.62549884e-07	-2.62549884e-09	6	8	10	1	0	1	-360	360;
	100347935	139827795	6.82011329e-05	8.6215314e-05	-2.62549884e-09	0.0025944	0.0038916	0.0043332	1	0	1	-360	360;
	139827795	100347991	0.000162018591	7.12594333e-05	-2.62549884e-09	0.0012282	0.0018492	0.0020562	1	0	1	-360	360;
	139827795	139827802	0.000221193737	0.000279618339	-2.62549884e-09	0.0025944	0.0038916	0.0043332	1	0	1	-360	360;
	139827802	100347998	3.2932966e-05	4.16316546e-05	-2.62549884e-09	0.0025944	0.0038916	0.0043332	1	0	1	-360	360;
	100347998	139827809	0.000430831748	0.000544628702	-2.62549884e-09	0.0025944	0.0038916	0.0043332	1	0	1	-360	360;
	139827809	139827816	0.000104733136	0.00013239663	-2.62549884e-09	0.0025944	0.0038916	0.0043332	1	0	1	-360	360;
	139827816	139827837	0.000209996395	8.65660009e-05	-2.62549884e-09	0.001863	0.0028014	0.003105	1	0	1	-360	360;
	139827816	139827830	0.000458154666	0.000188863325	-2.62549884e-09	0.001863	0.0028014	0.003105	1	0	1	-360	360;
	139827816	139827823	3.84004043e-05	4.85432246e-05	-2.62549884e-09	0.0025944	0.0038916	0.0043332	1	0	1	-360	360;
	139827823	100348054	5.28706845e-05	6.68355857e-05	-2.62549884e-09	0.0025944	0.0038916	0.0043332	1	0	1	-360	360;
	139827823	139827844	4.7029489e-05	5.94515368e-05	-2.62549884e-09	0.0025944	0.0038916	0.0043332	1	0	1	-360	360;
	139827844	100348047	2.62549884e-07	2.62549884e-07	-2.62549884e-09	6	8	10	1	0	1	-360	360;
	100347669	100347676	0.000115252879	0.000121834756	-2.62549884e-09	0.0037812	0.005658	0.0062928	1	0	1	-360	360;
	148545772	148545773	0.000382255367	0.00040408526	-2.62549884e-09	0.0037812	0.005658	0.0062928	1	0	1	-360	360;
	148545773	100347697	0.000161630562	0.000170860983	-2.62549884e-09	0.0037812	0.005658	0.0062928	1	0	1	-360	360;
	100347697	100347704	0.000109131421	0.000115363713	-2.62549884e-09	0.0037812	0.005658	0.0062928	1	0	1	-360	360;
	131503451	148545772	2.62549884e-07	2.62549884e-07	-2.62549884e-09	6	8	10	1	0	1	-360	360;
	100349986	149077299	0.00138012398	0.00154367012	-2.62549884e-09	0.0006624	0.0013662	0.0015318	1	0	1	-360	360;
	149077299	149077301	0.000246753004	0.000275993496	-2.62549884e-09	0.0006624	0.0013662	0.0015318	1	0	1	-360	360;
	149077299	149077300	0.000867299305	0.000970075188	-2.62549884e-09	0.0006624	0.0013662	0.0015318	1	0	1	-360	360;
	149077300	149077302	0.000747284359	0.000835838344	-2.62549884e-09	0.0006624	0.0013662	0.0015318	1	0	1	-360	360;
	149077302	100350028	0.000257826216	0.000288378895	-2.62549884e-09	0.0006624	0.0013662	0.0015318	1	0	1	-360	360;
	149077302	149077303	0.00114824813	0.00128431675	-2.62549884e-09	0.0006624	0.0013662	0.0015318	1	0	1	-360	360;
	149077303	149077304	8.33563986e-05	9.32342197e-05	-2.62549884e-09	0.0006624	0.0013662	0.0015318	1	0	1	-360	360;
	149077303	100350035	0.000231165246	0.000258558572	-2.62549884e-09	0.0006624	0.0013662	0.0015318	1	0	1	-360	360;
	149077304	149077305	0.00110260941	0.00123326979	-2.62549884e-09	0.0006624	0.0013662	0.0015318	1	0	1	-360	360;
	149077305	149077307	0.000382455494	0.000427776874	-2.62549884e-09	0.0006624	0.0013662	0.0015318	1	0	1	-360	360;
	149077305	149077306	0.000492675879	0.000203093871	-2.62549884e-09	0.001863	0.0028014	0.003105	1	0	1	-360	360;
	149077307	149077308	0.00359448638	0.00109432677	-2.62549884e-09	0.0009246	0.00138	0.0015456	1	0	1	-360	360;
	149077308	100350077	0.000666689958	0.000745693421	-2.62549884e-09	0.0006624	0.0013662	0.0015318	1	0	1	-360	360;
	100350077	149077309	7.57004332e-05	8.46710144e-05	-2.62549884e-09	0.0006624	0.0013662	0.0015318	1	0	1	-360	360;
	149077309	149077311	0.000482692193	0.000198978334	-2.62549884e-09	0.001863	0.0028014	0.003105	1	0	1	-360	360;
	149077309	149077310	0.000856938895	0.000958487057	-2.62549884e-09	0.0006624	0.0013662	0.0015318	1	0	1	-360	360;
	149077310	149077313	0.000104932456	4.61516628e-05	-2.62549884e-09	0.0012282	0.0018492	0.0020562	1	0	1	-360	360;
	149077310	149077312	0.0003296445	0.000368707721	-2.62549884e-09	0.0006624	0.0013662	0.0015318	1	0	1	-360	360;
	149077313	2029114	2.62549884e-07	2.62549884e-07	-2.62549884e-09	6	8	10	1	0	1	-360	360;
	149087298	149087299	4.9399449e-05	6.24474819e-05	-2.62549884e-09	0.0025944	0.0038916	0.0043332	1	0	1	-360	360;
	149087299	149087300	2.84226003e-05	3.59299517e-05	-2.62549884e-09	0.0025944	0.0038916	0.0043332	1	0	1	-360	360;
	149087299	149087205	0.000591831422	0.000625629814	-2.62549884e-09	0.0037812	0.005658	0.0062928	1	0	1	-360	360;
	100347830	149087298	2.62549884e-07	2.62549884e-07	-2.62549884e-09	6	8	10	1	0	1	-360	360;
	149087300	2029100	2.62549884e-07	2.62549884e-07	-2.62549884e-09	6	8	10	1	0	1	-360	360;
	150340829	150340830	1.74372652e-05	3.4900511e-06	-2.62549884e-09	0.001173	0.0017664	0.0019734	1	0	1	-360	360;
	150340830	150340831	2.27747108e-05	4.55833545e-06	-2.62549884e-09	0.001173	0.0017664	0.0019734	1	0	1	-360	360;
	150340831	150340832	1.74372652e-05	3.4900511e-06	-2.62549884e-09	0.001173	0.0017664	0.0019734	1	0	1	-360	360;
	100348075	150340829	2.62549884e-07	2.62549884e-07	-2.62549884e-09	6	8	10	1	0	1	-360	360;
	150340833	150340834	7.45591499e-06	5.21679217e-06	-2.62549884e-09	0.0016008	0.0024012	0.0026772	1	0	1	-360	360;
	150340834	150340835	1.75750893e-05	3.88573829e-06	-2.62549884e-09	0.0009522	0.0014352	0.0016008	1	0	1	-360	360;
	150340835	150340836	7.60414709e-05	1.68122762e-05	-2.62549884e-09	0.0009522	0.0014352	0.0016008	1	0	1	-360	360;
	150340836	150340837	2.83389878e-05	6.26556648e-06	-2.62549884e-09	0.0009522	0.0014352	0.0016008	1	0	1	-360	360;
	100349972	150340833	2.62549884e-07	2.62549884e-07	-2.62549884e-09	6	8	10	1	0	1	-360	360;
	150369475	150369476	0.000660672988	0.000290578893	-2.62549884e-09	0.0012282	0.0018492	0.0020562	1	0	1	-360	360;
	150369476	150369477	0.000495434346	0.000554143839	-2.62549884e-09	0.0006624	0.0013662	0.0015318	1	0	1	-360	360;
	150369477	150369478	0.00098005692	0.0010961947	-2.62549884e-09	0.0006624	0.0013662	0.0015318	1	0	1	-360	360;
	100348159	150369475	2.62549884e-07	2.62549884e-07	-2.62549884e-09	6	8	10	1	0	1	-360	360;
	150513442	150513443	0.000257466853	0.000106134564	-2.62549884e-09	0.001863	0.0028014	0.003105	1	0	1	-360	360;
	150513443	150513445	0.00015142092	6.24196597e-05	-2.62549884e-09	0.001863	0.0028014	0.003105	1	0	1	-360	360;
	150513443	150513444	0.000188263882	7.76072912e-05	-2.62549884e-09	0.001863	0.0028014	0.003105	1	0	1	-360	360;
	150513444	150513447	0.00023665894	9.75569986e-05	-2.62549884e-09	0.001863	0.0028014	0.003105	1	0	1	-360	360;
	150513444	150513446	0.000377030263	0.00016582642	-2.62549884e-09	0.0012282	0.0018492	0.0020562	1	0	1	-360	360;
	150513447	150513449	0.000435817323	0.000179655288	-2.62549884e-09	0.001863	0.0028014	0.003105	1	0	1	-360	360;
	150513447	150513448	0.00011680074	4.81483168e-05	-2.62549884e-09	0.001863	0.0028014	0.003105	1	0	1	-360	360;
	150513449	100349874	0.000107667457	4.4383339e-05	-2.62549884e-09	0.001863	0.0028014	0.003105	1	0	1	-360	360;
	150513449	150513450	0.000240130245	9.89879613e-05	-2.62549884e-09	0.001863	0.0028014	0.003105	1	0	1	-360	360;
	100347802	150513442	2.62549884e-07	2.62549884e-07	-2.62549884e-09	6	8	10	1	0	1	-360	360;
	150513451	150513452	0.000368775362	0.00015201884	-2.62549884e-09	0.001863	0.0028014	0.003105	1	0	1	-360	360;
	150513452	150513453	0.000299273159	0.000123368216	-2.62549884e-09	0.001863	0.0028014	0.003105	1	0	1	-360	360;
	150513453	150513455	0.000410400934	0.000169177988	-2.62549884e-09	0.001863	0.0028014	0.003105	1	0	1	-360	360;
	150513453	150513454	0.000219221772	9.03689427e-05	-2.62549884e-09	0.001863	0.0028014	0.003105	1	0	1	-360	360;
	150513455	150513457	0.000232801511	9.59668658e-05	-2.62549884e-09	0.001863	0.0028014	0.003105	1	0	1	-360	360;
	150513455	150513456	0.000209734398	8.64579989e-05	-2.62549884e-09	0.001863	0.0028014	0.003105	1	0	1	-360	360;
	150513456	100349972	3.51583458e-05	1.44931888e-05	-2.62549884e-09	0.001863	0.0028014	0.003105	1	0	1	-360	360;
	100349972	150513458	0.000258651702	0.00010662299	-2.62549884e-09	0.001863	0.0028014	0.003105	1	0	1	-360	360;
	150513450	150513451	2.62549884e-07	2.62549884e-07	-2.62549884e-09	6	8	10	1	0	1	-360	360;
	150513458	100349986	2.62549884e-07	2.62549884e-07	-2.62549884e-09	6	8	10	1	0	1	-360	360;
	151228381	151228382	0.000306796702	0.000343152434	-2.62549884e-09	0.0006624	0.0013662	0.0015318	1	0	1	-360	360;
	151228382	151228383	0.00206337593	0.00230788816	-2.62549884e-09	0.0006624	0.0013662	0.0015318	1	0	1	-360	360;
	151228383	151228385	0.000196857367	0.000220185173	-2.62549884e-09	0.0006624	0.0013662	0.0015318	1	0	1	-360	360;
	151228383	151228384	0.000957940881	0.00107145789	-2.62549884e-09	0.0006624	0.0013662	0.0015318	1	0	1	-360	360;
	151228384	151228387	0.000749393794	0.000329600307	-2.62549884e-09	0.0012282	0.0018492	0.0020562	1	0	1	-360	360;
	151228384	151228386	0.000485112698	0.000542599065	-2.62549884e-09	0.0006624	0.0013662	0.0015318	1	0	1	-360	360;
	100349874	151228381	2.62549884e-07	2.62549884e-07	-2.62549884e-09	6	8	10	1	0	1	-360	360;
];

%%-----  OPF Data  -----%%
%% generator cost data
%	1	startup	shutdown	n	x1	y1	...	xn	yn
%	2	startup	shutdown	n	c(n-1)	...	c0
mpc.gencost = [
	2	0	0	3	0.25	20	0;
];
